
---------- Begin Simulation Statistics ----------
sim_seconds                                 28.309284                       # Number of seconds simulated
sim_ticks                                28309284220000                       # Number of ticks simulated
final_tick                               28309284220000                       # Number of ticks from beginning of simulation (restored from checkpoints and never reset)
sim_freq                                 1000000000000                       # Frequency of simulated ticks
host_inst_rate                                 365593                       # Simulator instruction rate (inst/s)
host_op_rate                                   365593                       # Simulator op (including micro ops) rate (op/s)
host_tick_rate                            25800893378                       # Simulator tick rate (ticks/s)
host_mem_usage                                 641552                       # Number of bytes of host memory used
host_seconds                                  1097.22                       # Real time elapsed on the host
sim_insts                                   401136742                       # Number of instructions simulated
sim_ops                                     401136742                       # Number of ops (including micro ops) simulated
system.voltage_domain.voltage                       1                       # Voltage in Volts
system.clk_domain.clock                          1000                       # Clock period in ticks
system.mem_ctrls.pwrStateResidencyTicks::UNDEFINED 28309284220000                       # Cumulative time (in ticks) in various power states
system.mem_ctrls.bytes_read::.cpu.inst     1604547072                       # Number of bytes read from this memory
system.mem_ctrls.bytes_read::.cpu.data      451885153                       # Number of bytes read from this memory
system.mem_ctrls.bytes_read::total         2056432225                       # Number of bytes read from this memory
system.mem_ctrls.bytes_inst_read::.cpu.inst   1604547072                       # Number of instructions bytes read from this memory
system.mem_ctrls.bytes_inst_read::total    1604547072                       # Number of instructions bytes read from this memory
system.mem_ctrls.bytes_written::.cpu.data    256772035                       # Number of bytes written to this memory
system.mem_ctrls.bytes_written::total       256772035                       # Number of bytes written to this memory
system.mem_ctrls.num_reads::.cpu.inst       401136768                       # Number of read requests responded to by this memory
system.mem_ctrls.num_reads::.cpu.data        67925152                       # Number of read requests responded to by this memory
system.mem_ctrls.num_reads::total           469061920                       # Number of read requests responded to by this memory
system.mem_ctrls.num_writes::.cpu.data       36703333                       # Number of write requests responded to by this memory
system.mem_ctrls.num_writes::total           36703333                       # Number of write requests responded to by this memory
system.mem_ctrls.bw_read::.cpu.inst          56679182                       # Total read bandwidth from this memory (bytes/s)
system.mem_ctrls.bw_read::.cpu.data          15962437                       # Total read bandwidth from this memory (bytes/s)
system.mem_ctrls.bw_read::total              72641619                       # Total read bandwidth from this memory (bytes/s)
system.mem_ctrls.bw_inst_read::.cpu.inst     56679182                       # Instruction read bandwidth from this memory (bytes/s)
system.mem_ctrls.bw_inst_read::total         56679182                       # Instruction read bandwidth from this memory (bytes/s)
system.mem_ctrls.bw_write::.cpu.data          9070241                       # Write bandwidth from this memory (bytes/s)
system.mem_ctrls.bw_write::total              9070241                       # Write bandwidth from this memory (bytes/s)
system.mem_ctrls.bw_total::.cpu.inst         56679182                       # Total bandwidth to/from this memory (bytes/s)
system.mem_ctrls.bw_total::.cpu.data         25032678                       # Total bandwidth to/from this memory (bytes/s)
system.mem_ctrls.bw_total::total             81711860                       # Total bandwidth to/from this memory (bytes/s)
system.mem_ctrls.avgPriority_.cpu.inst::samples 401136769.00                       # Average QoS priority value for accepted requests
system.mem_ctrls.avgPriority_.cpu.data::samples  56338106.00                       # Average QoS priority value for accepted requests
system.mem_ctrls.priorityMinLatency      0.000000018750                       # per QoS priority minimum request to response latency (s)
system.mem_ctrls.priorityMaxLatency      5.226373808750                       # per QoS priority maximum request to response latency (s)
system.mem_ctrls.numReadWriteTurnArounds        75149                       # Number of turnarounds from READ to WRITE
system.mem_ctrls.numWriteReadTurnArounds        75149                       # Number of turnarounds from WRITE to READ
system.mem_ctrls.numStayReadState           955750675                       # Number of times bus staying in READ state
system.mem_ctrls.numStayWriteState            1131747                       # Number of times bus staying in WRITE state
system.mem_ctrls.readReqs                   469061921                       # Number of read requests accepted
system.mem_ctrls.writeReqs                   36703333                       # Number of write requests accepted
system.mem_ctrls.readBursts                 469061921                       # Number of DRAM read bursts, including those serviced by the write queue
system.mem_ctrls.writeBursts                 36703333                       # Number of DRAM write bursts, including those merged in the write queue
system.mem_ctrls.bytesReadDRAM            29201437568                       # Total number of bytes read from DRAM
system.mem_ctrls.bytesReadWrQ               818525376                       # Total number of bytes read from write queue
system.mem_ctrls.bytesWritten                76952704                       # Total number of bytes written to DRAM
system.mem_ctrls.bytesReadSys              2056432229                       # Total read bytes from the system interface side
system.mem_ctrls.bytesWrittenSys            256772035                       # Total written bytes from the system interface side
system.mem_ctrls.servicedByWrQ               12789459                       # Number of DRAM read bursts serviced by the write queue
system.mem_ctrls.mergedWrBursts              35500920                       # Number of DRAM write bursts merged with an existing one
system.mem_ctrls.neitherReadNorWriteReqs            0                       # Number of requests that are neither read nor write
system.mem_ctrls.perBankRdBursts::0          43649780                       # Per bank write bursts
system.mem_ctrls.perBankRdBursts::1          82214398                       # Per bank write bursts
system.mem_ctrls.perBankRdBursts::2          54818411                       # Per bank write bursts
system.mem_ctrls.perBankRdBursts::3          37119332                       # Per bank write bursts
system.mem_ctrls.perBankRdBursts::4           1369691                       # Per bank write bursts
system.mem_ctrls.perBankRdBursts::5            986765                       # Per bank write bursts
system.mem_ctrls.perBankRdBursts::6          19172666                       # Per bank write bursts
system.mem_ctrls.perBankRdBursts::7           1655806                       # Per bank write bursts
system.mem_ctrls.perBankRdBursts::8               627                       # Per bank write bursts
system.mem_ctrls.perBankRdBursts::9           9693196                       # Per bank write bursts
system.mem_ctrls.perBankRdBursts::10          2287407                       # Per bank write bursts
system.mem_ctrls.perBankRdBursts::11           245115                       # Per bank write bursts
system.mem_ctrls.perBankRdBursts::12          2015406                       # Per bank write bursts
system.mem_ctrls.perBankRdBursts::13         15778366                       # Per bank write bursts
system.mem_ctrls.perBankRdBursts::14         68182794                       # Per bank write bursts
system.mem_ctrls.perBankRdBursts::15        117082702                       # Per bank write bursts
system.mem_ctrls.perBankWrBursts::0                 0                       # Per bank write bursts
system.mem_ctrls.perBankWrBursts::1           1012449                       # Per bank write bursts
system.mem_ctrls.perBankWrBursts::2                11                       # Per bank write bursts
system.mem_ctrls.perBankWrBursts::3                 0                       # Per bank write bursts
system.mem_ctrls.perBankWrBursts::4             52771                       # Per bank write bursts
system.mem_ctrls.perBankWrBursts::5                 0                       # Per bank write bursts
system.mem_ctrls.perBankWrBursts::6                 0                       # Per bank write bursts
system.mem_ctrls.perBankWrBursts::7                 0                       # Per bank write bursts
system.mem_ctrls.perBankWrBursts::8                 0                       # Per bank write bursts
system.mem_ctrls.perBankWrBursts::9             92313                       # Per bank write bursts
system.mem_ctrls.perBankWrBursts::10               38                       # Per bank write bursts
system.mem_ctrls.perBankWrBursts::11            44804                       # Per bank write bursts
system.mem_ctrls.perBankWrBursts::12                0                       # Per bank write bursts
system.mem_ctrls.perBankWrBursts::13                0                       # Per bank write bursts
system.mem_ctrls.perBankWrBursts::14                0                       # Per bank write bursts
system.mem_ctrls.perBankWrBursts::15                0                       # Per bank write bursts
system.mem_ctrls.numRdRetry                         0                       # Number of times read queue was full causing retry
system.mem_ctrls.numWrRetry                         0                       # Number of times write queue was full causing retry
system.mem_ctrls.totGap                  28309284143000                       # Total gap between requests
system.mem_ctrls.readPktSize::0               7147517                       # Read request sizes (log2)
system.mem_ctrls.readPktSize::1                 64922                       # Read request sizes (log2)
system.mem_ctrls.readPktSize::2             411410247                       # Read request sizes (log2)
system.mem_ctrls.readPktSize::3              50439235                       # Read request sizes (log2)
system.mem_ctrls.readPktSize::4                     0                       # Read request sizes (log2)
system.mem_ctrls.readPktSize::5                     0                       # Read request sizes (log2)
system.mem_ctrls.readPktSize::6                     0                       # Read request sizes (log2)
system.mem_ctrls.writePktSize::0              3270599                       # Write request sizes (log2)
system.mem_ctrls.writePktSize::1                    0                       # Write request sizes (log2)
system.mem_ctrls.writePktSize::2              3490109                       # Write request sizes (log2)
system.mem_ctrls.writePktSize::3             29942625                       # Write request sizes (log2)
system.mem_ctrls.writePktSize::4                    0                       # Write request sizes (log2)
system.mem_ctrls.writePktSize::5                    0                       # Write request sizes (log2)
system.mem_ctrls.writePktSize::6                    0                       # Write request sizes (log2)
system.mem_ctrls.rdQLenPdf::0               456272462                       # What read queue length does an incoming req see
system.mem_ctrls.rdQLenPdf::1                       0                       # What read queue length does an incoming req see
system.mem_ctrls.rdQLenPdf::2                       0                       # What read queue length does an incoming req see
system.mem_ctrls.rdQLenPdf::3                       0                       # What read queue length does an incoming req see
system.mem_ctrls.rdQLenPdf::4                       0                       # What read queue length does an incoming req see
system.mem_ctrls.rdQLenPdf::5                       0                       # What read queue length does an incoming req see
system.mem_ctrls.rdQLenPdf::6                       0                       # What read queue length does an incoming req see
system.mem_ctrls.rdQLenPdf::7                       0                       # What read queue length does an incoming req see
system.mem_ctrls.rdQLenPdf::8                       0                       # What read queue length does an incoming req see
system.mem_ctrls.rdQLenPdf::9                       0                       # What read queue length does an incoming req see
system.mem_ctrls.rdQLenPdf::10                      0                       # What read queue length does an incoming req see
system.mem_ctrls.rdQLenPdf::11                      0                       # What read queue length does an incoming req see
system.mem_ctrls.rdQLenPdf::12                      0                       # What read queue length does an incoming req see
system.mem_ctrls.rdQLenPdf::13                      0                       # What read queue length does an incoming req see
system.mem_ctrls.rdQLenPdf::14                      0                       # What read queue length does an incoming req see
system.mem_ctrls.rdQLenPdf::15                      0                       # What read queue length does an incoming req see
system.mem_ctrls.rdQLenPdf::16                      0                       # What read queue length does an incoming req see
system.mem_ctrls.rdQLenPdf::17                      0                       # What read queue length does an incoming req see
system.mem_ctrls.rdQLenPdf::18                      0                       # What read queue length does an incoming req see
system.mem_ctrls.rdQLenPdf::19                      0                       # What read queue length does an incoming req see
system.mem_ctrls.rdQLenPdf::20                      0                       # What read queue length does an incoming req see
system.mem_ctrls.rdQLenPdf::21                      0                       # What read queue length does an incoming req see
system.mem_ctrls.rdQLenPdf::22                      0                       # What read queue length does an incoming req see
system.mem_ctrls.rdQLenPdf::23                      0                       # What read queue length does an incoming req see
system.mem_ctrls.rdQLenPdf::24                      0                       # What read queue length does an incoming req see
system.mem_ctrls.rdQLenPdf::25                      0                       # What read queue length does an incoming req see
system.mem_ctrls.rdQLenPdf::26                      0                       # What read queue length does an incoming req see
system.mem_ctrls.rdQLenPdf::27                      0                       # What read queue length does an incoming req see
system.mem_ctrls.rdQLenPdf::28                      0                       # What read queue length does an incoming req see
system.mem_ctrls.rdQLenPdf::29                      0                       # What read queue length does an incoming req see
system.mem_ctrls.rdQLenPdf::30                      0                       # What read queue length does an incoming req see
system.mem_ctrls.rdQLenPdf::31                      0                       # What read queue length does an incoming req see
system.mem_ctrls.wrQLenPdf::0                       1                       # What write queue length does an incoming req see
system.mem_ctrls.wrQLenPdf::1                       1                       # What write queue length does an incoming req see
system.mem_ctrls.wrQLenPdf::2                       1                       # What write queue length does an incoming req see
system.mem_ctrls.wrQLenPdf::3                       1                       # What write queue length does an incoming req see
system.mem_ctrls.wrQLenPdf::4                       1                       # What write queue length does an incoming req see
system.mem_ctrls.wrQLenPdf::5                       1                       # What write queue length does an incoming req see
system.mem_ctrls.wrQLenPdf::6                       1                       # What write queue length does an incoming req see
system.mem_ctrls.wrQLenPdf::7                       1                       # What write queue length does an incoming req see
system.mem_ctrls.wrQLenPdf::8                       1                       # What write queue length does an incoming req see
system.mem_ctrls.wrQLenPdf::9                       1                       # What write queue length does an incoming req see
system.mem_ctrls.wrQLenPdf::10                      1                       # What write queue length does an incoming req see
system.mem_ctrls.wrQLenPdf::11                      1                       # What write queue length does an incoming req see
system.mem_ctrls.wrQLenPdf::12                      1                       # What write queue length does an incoming req see
system.mem_ctrls.wrQLenPdf::13                      1                       # What write queue length does an incoming req see
system.mem_ctrls.wrQLenPdf::14                      1                       # What write queue length does an incoming req see
system.mem_ctrls.wrQLenPdf::15                      2                       # What write queue length does an incoming req see
system.mem_ctrls.wrQLenPdf::16                      2                       # What write queue length does an incoming req see
system.mem_ctrls.wrQLenPdf::17                  75150                       # What write queue length does an incoming req see
system.mem_ctrls.wrQLenPdf::18                  75150                       # What write queue length does an incoming req see
system.mem_ctrls.wrQLenPdf::19                  75150                       # What write queue length does an incoming req see
system.mem_ctrls.wrQLenPdf::20                  75150                       # What write queue length does an incoming req see
system.mem_ctrls.wrQLenPdf::21                  75150                       # What write queue length does an incoming req see
system.mem_ctrls.wrQLenPdf::22                  75150                       # What write queue length does an incoming req see
system.mem_ctrls.wrQLenPdf::23                  75150                       # What write queue length does an incoming req see
system.mem_ctrls.wrQLenPdf::24                  75150                       # What write queue length does an incoming req see
system.mem_ctrls.wrQLenPdf::25                  75150                       # What write queue length does an incoming req see
system.mem_ctrls.wrQLenPdf::26                  75150                       # What write queue length does an incoming req see
system.mem_ctrls.wrQLenPdf::27                  75149                       # What write queue length does an incoming req see
system.mem_ctrls.wrQLenPdf::28                  75149                       # What write queue length does an incoming req see
system.mem_ctrls.wrQLenPdf::29                  75149                       # What write queue length does an incoming req see
system.mem_ctrls.wrQLenPdf::30                  75149                       # What write queue length does an incoming req see
system.mem_ctrls.wrQLenPdf::31                  75149                       # What write queue length does an incoming req see
system.mem_ctrls.wrQLenPdf::32                  75149                       # What write queue length does an incoming req see
system.mem_ctrls.wrQLenPdf::33                      0                       # What write queue length does an incoming req see
system.mem_ctrls.wrQLenPdf::34                      0                       # What write queue length does an incoming req see
system.mem_ctrls.wrQLenPdf::35                      0                       # What write queue length does an incoming req see
system.mem_ctrls.wrQLenPdf::36                      0                       # What write queue length does an incoming req see
system.mem_ctrls.wrQLenPdf::37                      0                       # What write queue length does an incoming req see
system.mem_ctrls.wrQLenPdf::38                      0                       # What write queue length does an incoming req see
system.mem_ctrls.wrQLenPdf::39                      0                       # What write queue length does an incoming req see
system.mem_ctrls.wrQLenPdf::40                      0                       # What write queue length does an incoming req see
system.mem_ctrls.wrQLenPdf::41                      0                       # What write queue length does an incoming req see
system.mem_ctrls.wrQLenPdf::42                      0                       # What write queue length does an incoming req see
system.mem_ctrls.wrQLenPdf::43                      0                       # What write queue length does an incoming req see
system.mem_ctrls.wrQLenPdf::44                      0                       # What write queue length does an incoming req see
system.mem_ctrls.wrQLenPdf::45                      0                       # What write queue length does an incoming req see
system.mem_ctrls.wrQLenPdf::46                      0                       # What write queue length does an incoming req see
system.mem_ctrls.wrQLenPdf::47                      0                       # What write queue length does an incoming req see
system.mem_ctrls.wrQLenPdf::48                      0                       # What write queue length does an incoming req see
system.mem_ctrls.wrQLenPdf::49                      0                       # What write queue length does an incoming req see
system.mem_ctrls.wrQLenPdf::50                      0                       # What write queue length does an incoming req see
system.mem_ctrls.wrQLenPdf::51                      0                       # What write queue length does an incoming req see
system.mem_ctrls.wrQLenPdf::52                      0                       # What write queue length does an incoming req see
system.mem_ctrls.wrQLenPdf::53                      0                       # What write queue length does an incoming req see
system.mem_ctrls.wrQLenPdf::54                      0                       # What write queue length does an incoming req see
system.mem_ctrls.wrQLenPdf::55                      0                       # What write queue length does an incoming req see
system.mem_ctrls.wrQLenPdf::56                      0                       # What write queue length does an incoming req see
system.mem_ctrls.wrQLenPdf::57                      0                       # What write queue length does an incoming req see
system.mem_ctrls.wrQLenPdf::58                      0                       # What write queue length does an incoming req see
system.mem_ctrls.wrQLenPdf::59                      0                       # What write queue length does an incoming req see
system.mem_ctrls.wrQLenPdf::60                      0                       # What write queue length does an incoming req see
system.mem_ctrls.wrQLenPdf::61                      0                       # What write queue length does an incoming req see
system.mem_ctrls.wrQLenPdf::62                      0                       # What write queue length does an incoming req see
system.mem_ctrls.wrQLenPdf::63                      0                       # What write queue length does an incoming req see
system.mem_ctrls.bytesPerActivate::samples     55942887                       # Bytes accessed per row activation
system.mem_ctrls.bytesPerActivate::mean    523.362119                       # Bytes accessed per row activation
system.mem_ctrls.bytesPerActivate::gmean   311.683953                       # Bytes accessed per row activation
system.mem_ctrls.bytesPerActivate::stdev   412.378465                       # Bytes accessed per row activation
system.mem_ctrls.bytesPerActivate::0-127     15460996     27.64%     27.64% # Bytes accessed per row activation
system.mem_ctrls.bytesPerActivate::128-255      6532439     11.68%     39.31% # Bytes accessed per row activation
system.mem_ctrls.bytesPerActivate::256-383      3535812      6.32%     45.63% # Bytes accessed per row activation
system.mem_ctrls.bytesPerActivate::384-511      3452543      6.17%     51.81% # Bytes accessed per row activation
system.mem_ctrls.bytesPerActivate::512-639      3420998      6.12%     57.92% # Bytes accessed per row activation
system.mem_ctrls.bytesPerActivate::640-767      1642773      2.94%     60.86% # Bytes accessed per row activation
system.mem_ctrls.bytesPerActivate::768-895      1809633      3.23%     64.09% # Bytes accessed per row activation
system.mem_ctrls.bytesPerActivate::896-1023      1173449      2.10%     66.19% # Bytes accessed per row activation
system.mem_ctrls.bytesPerActivate::1024-1151     18914244     33.81%    100.00% # Bytes accessed per row activation
system.mem_ctrls.bytesPerActivate::total     55942887                       # Bytes accessed per row activation
system.mem_ctrls.rdPerTurnAround::samples        75149                       # Reads before turning the bus around for writes
system.mem_ctrls.rdPerTurnAround::mean    6071.562176                       # Reads before turning the bus around for writes
system.mem_ctrls.rdPerTurnAround::gmean   4361.910954                       # Reads before turning the bus around for writes
system.mem_ctrls.rdPerTurnAround::stdev  157708.887309                       # Reads before turning the bus around for writes
system.mem_ctrls.rdPerTurnAround::0-2.09715e+06        75147    100.00%    100.00% # Reads before turning the bus around for writes
system.mem_ctrls.rdPerTurnAround::4.1943e+06-6.29146e+06            1      0.00%    100.00% # Reads before turning the bus around for writes
system.mem_ctrls.rdPerTurnAround::4.1943e+07-4.40402e+07            1      0.00%    100.00% # Reads before turning the bus around for writes
system.mem_ctrls.rdPerTurnAround::total         75149                       # Reads before turning the bus around for writes
system.mem_ctrls.wrPerTurnAround::samples        75149                       # Writes before turning the bus around for reads
system.mem_ctrls.wrPerTurnAround::mean      16.000027                       # Writes before turning the bus around for reads
system.mem_ctrls.wrPerTurnAround::gmean     16.000025                       # Writes before turning the bus around for reads
system.mem_ctrls.wrPerTurnAround::stdev      0.007296                       # Writes before turning the bus around for reads
system.mem_ctrls.wrPerTurnAround::16            75148    100.00%    100.00% # Writes before turning the bus around for reads
system.mem_ctrls.wrPerTurnAround::18                1      0.00%    100.00% # Writes before turning the bus around for reads
system.mem_ctrls.wrPerTurnAround::total         75149                       # Writes before turning the bus around for reads
system.mem_ctrls.masterReadBytes::.cpu.inst   1604547076                       # Per-master bytes read from memory
system.mem_ctrls.masterReadBytes::.cpu.data    359069483                       # Per-master bytes read from memory
system.mem_ctrls.masterWriteBytes::.cpu.data      8694656                       # Per-master bytes write to memory
system.mem_ctrls.masterReadRate::.cpu.inst 56679182.120274744928                       # Per-master bytes read from memory rate (Bytes/sec)
system.mem_ctrls.masterReadRate::.cpu.data 12683806.492935765535                       # Per-master bytes read from memory rate (Bytes/sec)
system.mem_ctrls.masterWriteRate::.cpu.data 307130.902089618437                       # Per-master bytes write to memory rate (Bytes/sec)
system.mem_ctrls.masterReadAccesses::.cpu.inst    401136769                       # Per-master read serviced memory accesses
system.mem_ctrls.masterReadAccesses::.cpu.data     67925152                       # Per-master read serviced memory accesses
system.mem_ctrls.masterWriteAccesses::.cpu.data     36703333                       # Per-master write serviced memory accesses
system.mem_ctrls.masterReadTotalLat::.cpu.inst 11470126125000                       # Per-master read total memory access latency
system.mem_ctrls.masterReadTotalLat::.cpu.data 1991241184250                       # Per-master read total memory access latency
system.mem_ctrls.masterWriteTotalLat::.cpu.data 755202347197500                       # Per-master write total memory access latency
system.mem_ctrls.masterReadAvgLat::.cpu.inst     28594.05                       # Per-master read average memory access latency
system.mem_ctrls.masterReadAvgLat::.cpu.data     29315.23                       # Per-master read average memory access latency
system.mem_ctrls.masterWriteAvgLat::.cpu.data  20575851.99                       # Per-master write average memory access latency
system.mem_ctrls.totQLat                 4906258646750                       # Total ticks spent queuing
system.mem_ctrls.totMemAccLat            13461367309250                       # Total ticks spent from burst creation until serviced by the DRAM
system.mem_ctrls.totBusLat               2281362310000                       # Total ticks spent in databus transfers
system.mem_ctrls.avgQLat                     10752.91                       # Average queueing delay per DRAM burst
system.mem_ctrls.avgBusLat                    5000.00                       # Average bus latency per DRAM burst
system.mem_ctrls.avgMemAccLat                29502.91                       # Average memory access latency per DRAM burst
system.mem_ctrls.avgRdBW                      1031.51                       # Average DRAM read bandwidth in MiByte/s
system.mem_ctrls.avgWrBW                         2.72                       # Average achieved write bandwidth in MiByte/s
system.mem_ctrls.avgRdBWSys                     72.64                       # Average system read bandwidth in MiByte/s
system.mem_ctrls.avgWrBWSys                      9.07                       # Average system write bandwidth in MiByte/s
system.mem_ctrls.peakBW                      12800.00                       # Theoretical peak bandwidth in MiByte/s
system.mem_ctrls.busUtil                         8.08                       # Data bus utilization in percentage
system.mem_ctrls.busUtilRead                     8.06                       # Data bus utilization in percentage for reads
system.mem_ctrls.busUtilWrite                    0.02                       # Data bus utilization in percentage for writes
system.mem_ctrls.avgRdQLen                       1.00                       # Average read queue length when enqueuing
system.mem_ctrls.avgWrQLen                      27.27                       # Average write queue length when enqueuing
system.mem_ctrls.readRowHits                400504352                       # Number of row buffer hits during reads
system.mem_ctrls.writeRowHits                 1027605                       # Number of row buffer hits during writes
system.mem_ctrls.readRowHitRate                 87.78                       # Row buffer hit rate for reads
system.mem_ctrls.writeRowHitRate                85.46                       # Row buffer hit rate for writes
system.mem_ctrls.avgGap                      55973.17                       # Average gap between requests
system.mem_ctrls.pageHitRate                    87.77                       # Row buffer hit rate, read and write combined
system.mem_ctrls_0.actEnergy             268337207880                       # Energy for activate commands per rank (pJ)
system.mem_ctrls_0.preEnergy             142624604595                       # Energy for precharge commands per rank (pJ)
system.mem_ctrls_0.readEnergy            1720646094720                       # Energy for read commands per rank (pJ)
system.mem_ctrls_0.writeEnergy             5560505820                       # Energy for write commands per rank (pJ)
system.mem_ctrls_0.refreshEnergy         1949397755760.000244                       # Energy for refresh commands per rank (pJ)
system.mem_ctrls_0.actBackEnergy         3561202567140                       # Energy for active background per rank (pJ)
system.mem_ctrls_0.preBackEnergy          86461969920                       # Energy for precharge background per rank (pJ)
system.mem_ctrls_0.actPowerDownEnergy    6321695568030                       # Energy for active power-down per rank (pJ)
system.mem_ctrls_0.prePowerDownEnergy    1099228526400                       # Energy for precharge power-down per rank (pJ)
system.mem_ctrls_0.selfRefreshEnergy     985553473500                       # Energy for self refresh per rank (pJ)
system.mem_ctrls_0.totalEnergy           16141206235875                       # Total energy per rank (pJ)
system.mem_ctrls_0.averagePower            570.173591                       # Core power per rank (mW)
system.mem_ctrls_0.totalIdleTime         20273370302000                       # Total Idle time Per DRAM Rank
system.mem_ctrls_0.memoryStateTime::IDLE  84847734000                       # Time in different power states
system.mem_ctrls_0.memoryStateTime::REF  824618340000                       # Time in different power states
system.mem_ctrls_0.memoryStateTime::SREF 3547417949000                       # Time in different power states
system.mem_ctrls_0.memoryStateTime::PRE_PDN 2862575318250                       # Time in different power states
system.mem_ctrls_0.memoryStateTime::ACT  7126447844000                       # Time in different power states
system.mem_ctrls_0.memoryStateTime::ACT_PDN 13863377034750                       # Time in different power states
system.mem_ctrls_1.actEnergy             131095033860                       # Energy for activate commands per rank (pJ)
system.mem_ctrls_1.preEnergy              69678647775                       # Energy for precharge commands per rank (pJ)
system.mem_ctrls_1.readEnergy            1537139276820                       # Energy for read commands per rank (pJ)
system.mem_ctrls_1.writeEnergy              715949100                       # Energy for write commands per rank (pJ)
system.mem_ctrls_1.refreshEnergy         2114427981120.000244                       # Energy for refresh commands per rank (pJ)
system.mem_ctrls_1.actBackEnergy         3015817127370                       # Energy for active background per rank (pJ)
system.mem_ctrls_1.preBackEnergy         110408873760                       # Energy for precharge background per rank (pJ)
system.mem_ctrls_1.actPowerDownEnergy    7386011136180                       # Energy for active power-down per rank (pJ)
system.mem_ctrls_1.prePowerDownEnergy    1437354588000                       # Energy for precharge power-down per rank (pJ)
system.mem_ctrls_1.selfRefreshEnergy     473570528700                       # Energy for self refresh per rank (pJ)
system.mem_ctrls_1.totalEnergy           16278257395395                       # Total energy per rank (pJ)
system.mem_ctrls_1.averagePower            575.014800                       # Core power per rank (mW)
system.mem_ctrls_1.totalIdleTime         21403602628250                       # Total Idle time Per DRAM Rank
system.mem_ctrls_1.memoryStateTime::IDLE 107049545000                       # Time in different power states
system.mem_ctrls_1.memoryStateTime::REF  894428080000                       # Time in different power states
system.mem_ctrls_1.memoryStateTime::SREF 1463090675250                       # Time in different power states
system.mem_ctrls_1.memoryStateTime::PRE_PDN 3743111224500                       # Time in different power states
system.mem_ctrls_1.memoryStateTime::ACT  5904202461500                       # Time in different power states
system.mem_ctrls_1.memoryStateTime::ACT_PDN 16197402233750                       # Time in different power states
system.pwrStateResidencyTicks::UNDEFINED 28309284220000                       # Cumulative time (in ticks) in various power states
system.cpu_voltage_domain.voltage                   1                       # Voltage in Volts
system.cpu_clk_domain.clock                       500                       # Clock period in ticks
system.cpu.dtb.fetch_hits                           0                       # ITB hits
system.cpu.dtb.fetch_misses                         0                       # ITB misses
system.cpu.dtb.fetch_acv                            0                       # ITB acv
system.cpu.dtb.fetch_accesses                       0                       # ITB accesses
system.cpu.dtb.read_hits                     67925152                       # DTB read hits
system.cpu.dtb.read_misses                         21                       # DTB read misses
system.cpu.dtb.read_acv                             0                       # DTB read access violations
system.cpu.dtb.read_accesses                 67925173                       # DTB read accesses
system.cpu.dtb.write_hits                    36703333                       # DTB write hits
system.cpu.dtb.write_misses                         5                       # DTB write misses
system.cpu.dtb.write_acv                            0                       # DTB write access violations
system.cpu.dtb.write_accesses                36703338                       # DTB write accesses
system.cpu.dtb.data_hits                    104628485                       # DTB hits
system.cpu.dtb.data_misses                         26                       # DTB misses
system.cpu.dtb.data_acv                             0                       # DTB access violations
system.cpu.dtb.data_accesses                104628511                       # DTB accesses
system.cpu.itb.fetch_hits                   401136769                       # ITB hits
system.cpu.itb.fetch_misses                        37                       # ITB misses
system.cpu.itb.fetch_acv                            0                       # ITB acv
system.cpu.itb.fetch_accesses               401136806                       # ITB accesses
system.cpu.itb.read_hits                            0                       # DTB read hits
system.cpu.itb.read_misses                          0                       # DTB read misses
system.cpu.itb.read_acv                             0                       # DTB read access violations
system.cpu.itb.read_accesses                        0                       # DTB read accesses
system.cpu.itb.write_hits                           0                       # DTB write hits
system.cpu.itb.write_misses                         0                       # DTB write misses
system.cpu.itb.write_acv                            0                       # DTB write access violations
system.cpu.itb.write_accesses                       0                       # DTB write accesses
system.cpu.itb.data_hits                            0                       # DTB hits
system.cpu.itb.data_misses                          0                       # DTB misses
system.cpu.itb.data_acv                             0                       # DTB access violations
system.cpu.itb.data_accesses                        0                       # DTB accesses
system.cpu.workload.numSyscalls                 77267                       # Number of system calls
system.cpu.pwrStateResidencyTicks::ON    28309284220000                       # Cumulative time (in ticks) in various power states
system.cpu.numCycles                      56618568440                       # number of cpu cycles simulated
system.cpu.numWorkItemsStarted                      0                       # number of work items this cpu started
system.cpu.numWorkItemsCompleted                    0                       # number of work items this cpu completed
system.cpu.committedInsts                   401136742                       # Number of instructions committed
system.cpu.committedOps                     401136742                       # Number of ops (including micro ops) committed
system.cpu.num_int_alu_accesses             387042906                       # Number of integer alu accesses
system.cpu.num_fp_alu_accesses                2071889                       # Number of float alu accesses
system.cpu.num_vec_alu_accesses                     0                       # Number of vector alu accesses
system.cpu.num_func_calls                    11368131                       # number of times a function call or return occured
system.cpu.num_conditional_control_insts     43373459                       # number of instructions that are conditional controls
system.cpu.num_int_insts                    387042906                       # number of integer instructions
system.cpu.num_fp_insts                       2071889                       # number of float instructions
system.cpu.num_vec_insts                            0                       # number of vector instructions
system.cpu.num_int_register_reads           566026261                       # number of times the integer registers were read
system.cpu.num_int_register_writes          301496448                       # number of times the integer registers were written
system.cpu.num_fp_register_reads              2349733                       # number of times the floating registers were read
system.cpu.num_fp_register_writes              986163                       # number of times the floating registers were written
system.cpu.num_vec_register_reads                   0                       # number of times the vector registers were read
system.cpu.num_vec_register_writes                  0                       # number of times the vector registers were written
system.cpu.num_mem_refs                     104628511                       # number of memory refs
system.cpu.num_load_insts                    67925173                       # Number of load instructions
system.cpu.num_store_insts                   36703338                       # Number of store instructions
system.cpu.num_idle_cycles                          0                       # Number of idle cycles
system.cpu.num_busy_cycles                56618568440                       # Number of busy cycles
system.cpu.not_idle_fraction                        1                       # Percentage of non-idle cycles
system.cpu.idle_fraction                            0                       # Percentage of idle cycles
system.cpu.Branches                          59924238                       # Number of branches fetched
system.cpu.op_class::No_OpClass               7633355      1.90%      1.90% # Class of executed instruction
system.cpu.op_class::IntAlu                 285765377     71.24%     73.14% # Class of executed instruction
system.cpu.op_class::IntMult                  1993560      0.50%     73.64% # Class of executed instruction
system.cpu.op_class::IntDiv                         0      0.00%     73.64% # Class of executed instruction
system.cpu.op_class::FloatAdd                  506883      0.13%     73.77% # Class of executed instruction
system.cpu.op_class::FloatCmp                  150275      0.04%     73.80% # Class of executed instruction
system.cpu.op_class::FloatCvt                  201678      0.05%     73.85% # Class of executed instruction
system.cpu.op_class::FloatMult                  75304      0.02%     73.87% # Class of executed instruction
system.cpu.op_class::FloatMultAcc                   0      0.00%     73.87% # Class of executed instruction
system.cpu.op_class::FloatDiv                   49196      0.01%     73.88% # Class of executed instruction
system.cpu.op_class::FloatMisc                      0      0.00%     73.88% # Class of executed instruction
system.cpu.op_class::FloatSqrt                    556      0.00%     73.88% # Class of executed instruction
system.cpu.op_class::SimdAdd                        0      0.00%     73.88% # Class of executed instruction
system.cpu.op_class::SimdAddAcc                     0      0.00%     73.88% # Class of executed instruction
system.cpu.op_class::SimdAlu                        0      0.00%     73.88% # Class of executed instruction
system.cpu.op_class::SimdCmp                        0      0.00%     73.88% # Class of executed instruction
system.cpu.op_class::SimdCvt                        0      0.00%     73.88% # Class of executed instruction
system.cpu.op_class::SimdMisc                       0      0.00%     73.88% # Class of executed instruction
system.cpu.op_class::SimdMult                       0      0.00%     73.88% # Class of executed instruction
system.cpu.op_class::SimdMultAcc                    0      0.00%     73.88% # Class of executed instruction
system.cpu.op_class::SimdShift                      0      0.00%     73.88% # Class of executed instruction
system.cpu.op_class::SimdShiftAcc                   0      0.00%     73.88% # Class of executed instruction
system.cpu.op_class::SimdSqrt                       0      0.00%     73.88% # Class of executed instruction
system.cpu.op_class::SimdFloatAdd                   0      0.00%     73.88% # Class of executed instruction
system.cpu.op_class::SimdFloatAlu                   0      0.00%     73.88% # Class of executed instruction
system.cpu.op_class::SimdFloatCmp                   0      0.00%     73.88% # Class of executed instruction
system.cpu.op_class::SimdFloatCvt                   0      0.00%     73.88% # Class of executed instruction
system.cpu.op_class::SimdFloatDiv                   0      0.00%     73.88% # Class of executed instruction
system.cpu.op_class::SimdFloatMisc                  0      0.00%     73.88% # Class of executed instruction
system.cpu.op_class::SimdFloatMult                  0      0.00%     73.88% # Class of executed instruction
system.cpu.op_class::SimdFloatMultAcc               0      0.00%     73.88% # Class of executed instruction
system.cpu.op_class::SimdFloatSqrt                  0      0.00%     73.88% # Class of executed instruction
system.cpu.op_class::SimdAes                        0      0.00%     73.88% # Class of executed instruction
system.cpu.op_class::SimdAesMix                     0      0.00%     73.88% # Class of executed instruction
system.cpu.op_class::SimdSha1Hash                   0      0.00%     73.88% # Class of executed instruction
system.cpu.op_class::SimdSha1Hash2                  0      0.00%     73.88% # Class of executed instruction
system.cpu.op_class::SimdSha256Hash                 0      0.00%     73.88% # Class of executed instruction
system.cpu.op_class::SimdSha256Hash2                0      0.00%     73.88% # Class of executed instruction
system.cpu.op_class::SimdShaSigma2                  0      0.00%     73.88% # Class of executed instruction
system.cpu.op_class::SimdShaSigma3                  0      0.00%     73.88% # Class of executed instruction
system.cpu.op_class::MemRead                 67707177     16.88%     90.76% # Class of executed instruction
system.cpu.op_class::MemWrite                35965410      8.97%     99.73% # Class of executed instruction
system.cpu.op_class::FloatMemRead              350068      0.09%     99.82% # Class of executed instruction
system.cpu.op_class::FloatMemWrite             737929      0.18%    100.00% # Class of executed instruction
system.cpu.op_class::IprAccess                      0      0.00%    100.00% # Class of executed instruction
system.cpu.op_class::InstPrefetch                   0      0.00%    100.00% # Class of executed instruction
system.cpu.op_class::total                  401136768                       # Class of executed instruction
system.membus.snoop_filter.tot_requests             0                       # Total number of requests made to the snoop filter.
system.membus.snoop_filter.hit_single_requests            0                       # Number of requests hitting in the snoop filter with a single holder of the requested data.
system.membus.snoop_filter.hit_multi_requests            0                       # Number of requests hitting in the snoop filter with multiple (>1) holders of the requested data.
system.membus.snoop_filter.tot_snoops               0                       # Total number of snoops made to the snoop filter.
system.membus.snoop_filter.hit_single_snoops            0                       # Number of snoops hitting in the snoop filter with a single holder of the requested data.
system.membus.snoop_filter.hit_multi_snoops            0                       # Number of snoops hitting in the snoop filter with multiple (>1) holders of the requested data.
system.membus.pwrStateResidencyTicks::UNDEFINED 28309284220000                       # Cumulative time (in ticks) in various power states
system.membus.trans_dist::ReadReq           468929849                       # Transaction distribution
system.membus.trans_dist::ReadResp          469061920                       # Transaction distribution
system.membus.trans_dist::WriteReq           36571261                       # Transaction distribution
system.membus.trans_dist::WriteResp          36571261                       # Transaction distribution
system.membus.trans_dist::LoadLockedReq        132072                       # Transaction distribution
system.membus.trans_dist::StoreCondReq         132072                       # Transaction distribution
system.membus.trans_dist::StoreCondResp        132072                       # Transaction distribution
system.membus.pkt_count_system.cpu.icache_port::system.mem_ctrls.port    802273537                       # Packet count per connected master and slave (bytes)
system.membus.pkt_count_system.cpu.dcache_port::system.mem_ctrls.port    209256970                       # Packet count per connected master and slave (bytes)
system.membus.pkt_count::total             1011530507                       # Packet count per connected master and slave (bytes)
system.membus.pkt_size_system.cpu.icache_port::system.mem_ctrls.port   1604547072                       # Cumulative packet size per connected master and slave (bytes)
system.membus.pkt_size_system.cpu.dcache_port::system.mem_ctrls.port    708657188                       # Cumulative packet size per connected master and slave (bytes)
system.membus.pkt_size::total              2313204260                       # Cumulative packet size per connected master and slave (bytes)
system.membus.snoops                                0                       # Total snoops (count)
system.membus.snoopTraffic                          0                       # Total snoop traffic (bytes)
system.membus.snoop_fanout::samples         505765254                       # Request fanout histogram
system.membus.snoop_fanout::mean                    0                       # Request fanout histogram
system.membus.snoop_fanout::stdev                   0                       # Request fanout histogram
system.membus.snoop_fanout::underflows              0      0.00%      0.00% # Request fanout histogram
system.membus.snoop_fanout::0               505765254    100.00%    100.00% # Request fanout histogram
system.membus.snoop_fanout::1                       0      0.00%    100.00% # Request fanout histogram
system.membus.snoop_fanout::overflows               0      0.00%    100.00% # Request fanout histogram
system.membus.snoop_fanout::min_value               0                       # Request fanout histogram
system.membus.snoop_fanout::max_value               0                       # Request fanout histogram
system.membus.snoop_fanout::total           505765254                       # Request fanout histogram
system.membus.reqLayer0.occupancy        542468587000                       # Layer occupancy (ticks)
system.membus.reqLayer0.utilization               1.9                       # Layer utilization (%)
system.membus.respLayer1.occupancy       914701734750                       # Layer occupancy (ticks)
system.membus.respLayer1.utilization              3.2                       # Layer utilization (%)
system.membus.respLayer2.occupancy       193309370750                       # Layer occupancy (ticks)
system.membus.respLayer2.utilization              0.7                       # Layer utilization (%)

---------- End Simulation Statistics   ----------
